114
Na4 Sn2 Ge5 O16
Sn 1.3980780615703465 6.377430290602097 7.434690228141459
Sn 5.151470608521618 5.572650956179924 11.585577764614245
Sn 1.8913022397093888 11.525666031179501 16.958026481588696
Sn 4.684489947375204 0.41154267727414395 2.080335804143897
Sn 5.174152194165587 6.379197443870312 2.099352503303452
Sn 1.3749663331553854 5.602260385935725 16.90637197157111
Sn 4.670443013648384 11.555496150007142 11.548838452299263
Sn 1.892093703949624 0.3907551136169787 7.42421768759585
Ge 4.637588120236456 5.959633533157673 8.284887525313442
Ge 1.8817469167047185 5.968596399466409 10.79682984636532
Ge 5.138003548165102 0.05115622726093496 17.753178424436058
Ge 1.414649896409806 11.927194946879409 1.2869185495028217
Ge 1.902017207741839 5.923273273594585 1.3082086130726844
Ge 4.670093107907309 5.969559326058775 17.699397135470488
Ge 1.4152000787519916 -0.00408618573398974 10.820805982518648
Ge 5.136714354764227 11.916320553541167 8.255307226633011
Ge 3.2526985995947353 1.940547107422118 4.795284826420213
Ge 3.247714641754567 10.024826787524157 14.27294178085424
Ge 0.03393143171918851 4.087470423831131 14.259742894696574
Ge 6.553393210475908 4.0500905892531245 14.255141796194449
Ge -0.003764262800988613 7.880810895448598 4.761803131503445
Ge 6.520807627034866 7.860194232954017 4.739510536362296
Ge 3.0822075121397496 3.5543395990586095 7.2759547930784745
Ge 3.4649660308276324 8.437926240997369 11.765602158236236
Ge 0.20748374548326165 2.4461006069520126 16.786276619248746
Ge 6.310460596369748 9.502194451502865 2.239846308140077
Ge 3.4620630266310966 3.5537918406315434 2.2730889948298736
Ge 3.1005689128696385 8.431297363216308 16.71999216022475
Ge 6.324415920706805 2.470888985270772 11.76023221437547
Ge 0.23392486076688965 9.497160834777594 7.290738928342406
Na 3.324896282611465 2.7509098140117234 10.382602053757902
Na 3.2405377998992915 9.150506317431361 8.649878013699631
Na 6.431632611853125 3.2151873293818576 0.885526754020806
Na 0.10357895921467454 8.717451492688735 18.15007128605883
Na 3.2022914667388407 2.771497290545685 18.182608313254473
Na 3.3378400607186967 9.174831788771575 0.8482685927856769
Na 0.10064888132410199 3.2156381837069343 8.612819569606026
Na 6.4896785302695585 8.729289599794331 10.367518037893785
Na 0.03548744733731274 0.24252728657283468 4.800588907653742
Na 6.5244954164694375 0.20899658888329273 4.7739472745395375
Na 0.011518224785018846 11.702387962291091 14.237067974185232
Na 6.509287435245854 11.714586651089807 14.262798912107655
Na 3.2996539813610535 5.759325518839113 14.274913710549328
Na 3.253928955380036 6.197729571860715 4.782283698065241
Na -0.006632181761311428 4.60734822431782 4.732802963004598
Na 6.537429073780655 4.588874310012071 4.767791195223005
Na 0.027788588832643825 7.371898483064406 14.267727932466048
Na 6.549470713088321 7.347599629855701 14.255662821495966
Na 3.2982700909891354 1.4342992514058208 14.28682018045
Na 3.2824978251241346 10.548607140546908 4.772907589371592
O 5.944184018898594 5.8940952982133235 7.128521600690886
O 0.5723915805814587 6.102366079840681 11.926705969944086
O 3.8630843135619615 0.11460461580596468 16.600620424841168
O 2.7129416245420948 11.825572806203178 2.408794926744279
O 0.5537785498250793 5.86598281923235 2.4093634091030682
O 5.966735667884593 6.077982743101643 16.609408610895102
O 2.7021058716124386 0.12860790211730183 11.921109743985316
O 3.794457383316789 11.824217293076908 7.112931076306267
O 5.097971244755771 6.566338222592761 9.842250764365673
O 1.4800186418465004 5.379186941448752 9.181606288685044
O 4.6805154084984135 11.306142057314503 0.3247834835209759
O 1.8379872775151296 0.6068149795589791 18.671577779541785
O 1.4507103871252494 6.610099130923566 18.70590356704562
O 5.096113865810489 5.347436622055718 0.30386800941063125
O 1.843942062191616 11.32557925972504 9.21542193257178
O 4.6958192981792894 0.6253979429007874 9.806101031052489
O 3.3718801501050897 6.8929180535712 7.503732128337659
O 3.1966184240340763 5.050213410196835 11.507765837919994
O 6.396706573645126 11.021166133112002 17.028758698253384
O 0.08768664270091665 0.974711066920868 1.997652536968271
O 3.1660760096310283 6.867621911445223 2.0712694595775534
O 3.4211090741574948 5.037600167519333 17.018344928001458
O 0.09082357101356606 10.978876827477361 11.480783078152022
O 6.417776015251261 0.9291229408576324 7.5818154058062435
O 4.159704118755149 4.279212180886384 8.412446707102184
O 2.376203409224889 7.70122850335509 10.676078024589211
O 5.634381797552658 1.7038864961657165 17.91521615474083
O 0.9550210424192208 10.224080460058346 1.1592244309159199
O 2.3488691149122136 4.298956362537907 1.1431166161716464
O 4.166699960840607 7.684428939042279 17.934873283920577
O 0.9008792732731324 1.7404959809090532 10.603546478702988
O 5.598997098565749 10.235974636111374 8.426713923210034
O 2.3348216059935107 2.2923594987732274 8.186176055822886
O 4.180016813446424 9.715815648310574 10.868318359518605
O 0.9249672318288844 3.7577086186626096 17.704694493427098
O 5.577499810876395 8.23270221812066 1.37336111442421
O 4.185856594812063 2.226264867239918 1.3415519404946343
O 2.3619357881780574 9.667130862358691 17.677828380256575
O 5.594214250402155 3.7588553144659103 10.858958412061236
O 0.9328933191403445 8.191471689727768 8.200644998533194
O 1.9268966865602084 4.5834844909668515 6.556373302714099
O 4.642484657401263 7.379973115061773 12.494654664785228
O 1.3873172310608133 1.4104056446492448 16.04524348511376
O 5.1504547699343695 10.557854811110719 2.9548872592475246
O 4.640987262502862 4.582902597440158 2.967766021502611
O 1.9210624751724006 7.345466432842595 16.060427201345178
O 5.147049093207983 1.3801658543289925 12.509102488934486
O 1.3875633431192202 10.510616015579203 6.56066651218154
O 4.1026204308471 2.9718395328866656 5.984807802760934
O 2.437774609479512 8.98995652522585 13.076117084013916
O 5.717191004381949 3.0871171248097156 15.466738765360486
O 0.8467515377619769 8.938217704465702 3.5989072987211914
O 2.45706210176783 2.9930800843997445 3.5825636491246904
O 4.0866869255882206 9.018244496467881 15.473456903024866
O 0.8186992059758197 3.0291935176038853 13.071747133306525
O 5.725810948632269 8.918467049047281 5.9541517163100615
O 1.9841360063946976 1.0769504324771257 5.5129609457671425
O 4.584167766145222 10.843042287461506 13.532759035464256
O 1.3309612390305878 4.943077288077331 15.024434071108676
O 5.176616313261783 7.033377146211972 4.037619619757666
O 4.635238608880035 1.1007898134757297 4.020470450991058
O 1.9235505333775498 10.836639180742665 15.019763336252446
O 5.227429857165816 4.903124863504169 13.524600708771919
O 1.3398785347582707 7.033468704035851 5.492674436746626