186
Ge5 Na4 O16 Sn2
Sn    1.375367    6.349334    7.431794
Sn    5.130933    5.562665   11.563206
Sn    1.877783   11.518665   16.929295
Sn    4.628517    0.393334    2.065706
Sn    5.130933    6.349334    2.065706
Sn    1.375367    5.562665   16.929295
Sn    4.628517   11.518665   11.563206
Sn    1.877783    0.393334    7.431794
Ge    4.643806    5.953260    8.221796
Ge    1.862493    5.958740   10.773205
Ge    5.115643    0.002740   17.719296
Ge    1.390656   11.909260    1.275704
Ge    1.862493    5.953260    1.275704
Ge    4.643806    5.958740   17.719296
Ge    1.390656    0.002740   10.773205
Ge    5.115643   11.909260    8.221796
Ge    3.253150    1.910327    4.748750
Ge    3.253150   10.001672   14.246251
Ge    0.000000    4.045672   14.246251
Ge    6.506300    4.045672   14.246251
Ge    0.000000    7.866327    4.748750
Ge    6.506300    7.866327    4.748750
Ge    3.045664    3.510704    7.246023
Ge    3.460636    8.401295   11.748978
Ge    0.207486    2.445295   16.743523
Ge    6.298814    9.466704    2.251478
Ge    3.460636    3.510704    2.251478
Ge    3.045664    8.401295   16.743523
Ge    6.298814    2.445295   11.748978
Ge    0.207486    9.466704    7.246023
Na    3.319514    2.760606   10.358353
Na    3.186786    9.151394    8.636647
Na    6.439936    3.195394    0.860853
Na    0.066364    8.716606   18.134148
Na    3.186786    2.760606   18.134148
Na    3.319514    9.151394    0.860853
Na    0.066364    3.195394    8.636647
Na    6.439936    8.716606   10.358353
Na    0.000000    0.208460    4.748750
Na    6.506300    0.208460    4.748750
Na    0.000000   11.703540   14.246251
Na    6.506300   11.703540   14.246251
Na    3.253150    5.747540   14.246251
Na    3.253150    6.164460    4.748750
Na    0.000000    4.573017    4.748750
Na    6.506300    4.573017    4.748750
Na    0.000000    7.338983   14.246251
Na    6.506300    7.338983   14.246251
Na    3.253150    1.382983   14.246251
Na    3.253150   10.529016    4.748750
 O    5.957168    5.842836    7.097672
 O    0.549132    6.069164   11.897329
 O    3.802282    0.113164   16.595172
 O    2.704018   11.798836    2.399828
 O    0.549132    5.842836    2.399828
 O    5.957168    6.069164   16.595172
 O    2.704018    0.113164   11.897329
 O    3.802282   11.798836    7.097672
 O    5.084673    6.556365    9.791543
 O    1.421627    5.355635    9.203458
 O    4.674777   11.311635    0.294042
 O    1.831523    0.600365   18.700959
 O    1.421627    6.556365   18.700959
 O    5.084673    5.355635    0.294042
 O    1.831523   11.311635    9.203458
 O    4.674777    0.600365    9.791543
 O    3.346841    6.885136    7.515562
 O    3.159459    5.026864   11.479439
 O    6.412609   10.982864   17.013063
 O    0.093691    0.929136    1.981938
 O    3.159459    6.885136    1.981938
 O    3.346841    5.026864   17.013063
 O    0.093691   10.982864   11.479439
 O    6.412609    0.929136    7.515562
 O    4.155574    4.250201    8.386103
 O    2.350726    7.661798   10.608898
 O    5.603876    1.705798   17.883603
 O    0.902424   10.206201    1.111398
 O    2.350726    4.250201    1.111398
 O    4.155574    7.661798   17.883603
 O    0.902424    1.705798   10.608898
 O    5.603876   10.206201    8.386103
 O    2.318845    2.235882    8.169370
 O    4.187455    9.676117   10.825631
 O    0.934305    3.720117   17.666870
 O    5.571995    8.191882    1.328131
 O    4.187455    2.235882    1.328131
 O    2.318845    9.676117   17.666870
 O    5.571995    3.720117   10.825631
 O    0.934305    8.191882    8.169370
 O    1.886176    4.580164    6.530861
 O    4.620124    7.331836   12.464140
 O    1.366974    1.375836   16.028362
 O    5.139326   10.536164    2.966639
 O    4.620124    4.580164    2.966639
 O    1.886176    7.331836   16.028362
 O    5.139326    1.375836   12.464140
 O    1.366974   10.536164    6.530861
 O    4.059931    2.944646    5.929099
 O    2.446369    8.967353   13.065902
 O    5.699519    3.011354   15.426600
 O    0.806781    8.900646    3.568401
 O    2.446369    2.944646    3.568401
 O    4.059931    8.967353   15.426600
 O    0.806781    3.011354   13.065902
 O    5.699519    8.900646    5.929099
 O    1.944082    1.062550    5.494494
 O    4.562218   10.849449   13.500507
 O    1.309068    4.893450   14.991994
 O    5.197232    7.018550    4.003006
 O    4.562218    1.062550    4.003006
 O    1.944082   10.849449   14.991994
 O    5.197232    4.893450   13.500507
 O    1.309068    7.018550    5.494494
 O   -0.549132    5.842836    7.097672
 O    7.055432    6.069164   11.897329
 O   -0.093691   10.982864   17.013063
 O    1.366974   13.287836   16.028362
 O    1.831523   12.512365   18.700959
 O    3.802282   12.025164   16.595172
 O    2.704018   -0.113164    2.399828
 O    4.674777   -0.600365    0.294042
 O    5.139326   -1.375836    2.966639
 O    6.599991    0.929136    1.981938
 O    7.055432    5.842836    2.399828
 O   -0.549132    6.069164   16.595172
 O    2.704018   12.025164   11.897329
 O    4.674777   12.512365    9.791543
 O    5.139326   13.287836   12.464140
 O    6.599991   10.982864   11.479439
 O   -0.093691    0.929136    7.515562
 O    1.366974   -1.375836    6.530861
 O    1.831523   -0.600365    9.203458
 O    3.802282   -0.113164    7.097672
 O    6.412609   -0.929136   17.013063
 O    4.674777   -0.600365   19.289043
 O    1.831523   12.512365   -0.294042
 O    0.093691   12.841136    1.981938
 O    1.421627    6.556365   -0.294042
 O    5.084673    5.355635   19.289043
 O    0.093691   -0.929136   11.479439
 O    6.412609   12.841136    7.515562
 O   -0.806781    3.011354   15.426600
 O   -1.309068    4.893450   13.500507
 O    7.313081    3.011354   13.065902
 O    7.815368    4.893450   14.991994
 O   -1.309068    7.018550    4.003006
 O   -0.806781    8.900646    5.929099
 O    7.815368    7.018550    5.494494
 O    7.313081    8.900646    3.568401
 O   -0.902424    1.705798   17.883603
 O    7.408724   10.206201    1.111398
 O    7.408724    1.705798   10.608898
 O   -0.902424   10.206201    8.386103
 O    5.603876    1.705798   -1.111398
 O    7.440605    3.720117   -1.328131
 O    8.857026    4.250201    1.111398
 O   -2.350726    7.661798   17.883603
 O   -0.934305    8.191882   20.323131
 O    0.902424   10.206201   20.106398
 O    4.187455    2.235882   20.323131
 O    2.350726    4.250201   20.106398
 O    4.155574    7.661798   -1.111398
 O    2.318845    9.676117   -1.328131
 O   -2.350726    4.250201    8.386103
 O   -0.934305    3.720117   10.825631
 O    7.440605    8.191882    8.169370
 O    8.857026    7.661798   10.608898
 O   -1.366974   -1.375836    2.966639
 O   -1.944082    1.062550    4.003006
 O    7.873274   -1.375836    6.530861
 O    8.450382    1.062550    5.494494
 O   -1.944082   10.849449   13.500507
 O   -1.366974   13.287836   12.464140
 O    8.450382   10.849449   14.991994
 O    7.873274   13.287836   16.028362
 O   -1.886176    4.580164    2.966639
 O    8.392476    4.580164    6.530861
 O   -1.886176    7.331836   12.464140
 O    8.392476    7.331836   16.028362
 O    1.944082   -1.062550   14.991994
 O    4.562218   -1.062550   13.500507
 O    1.944082   12.974550    5.494494
 O    4.562218   12.974550    4.003006
Na    3.253150   13.294983   14.246251
Na    3.253150   -1.382983    4.748750
